25
[/Users/tanakahideya/2_Active_learning_241107/4_gen_xyz_sdf/gaussian_optimized_log/g_1902_1.log: Geometry 11]
C      2.5465680000   -1.2392850000   -1.2787870000
C      2.0926330000   -0.1042650000   -0.3528910000
C      2.6915640000    1.2162020000   -0.8405850000
C      2.6208710000   -0.3788020000    1.0710940000
O      2.2467300000    0.6079120000    1.9898870000
C      0.5642070000   -0.0514820000   -0.2788370000
C     -0.1630630000    1.1247460000   -0.4961550000
C     -1.5538700000    1.1559350000   -0.3841410000
C     -2.2389600000   -0.0045370000   -0.0431020000
Cl    -3.9701830000    0.0226220000    0.1006610000
C     -1.5455190000   -1.1912830000    0.1891700000
C     -0.1597120000   -1.2028300000    0.0719220000
H      2.1779890000   -1.0742640000   -2.3014570000
H      3.6457170000   -1.2828590000   -1.3127430000
H      2.1831310000   -2.2204470000   -0.9417430000
H      2.4860520000    2.0251100000   -0.1269960000
H      2.3002120000    1.4963690000   -1.8294960000
H      3.7832840000    1.1143810000   -0.9241670000
H      2.2927200000   -1.3861300000    1.3940590000
H      3.7219260000   -0.3894430000    1.0457640000
H      1.2819790000    0.6321360000    2.0227640000
H      0.3530520000    2.0464890000   -0.7625570000
H     -2.1078510000    2.0781230000   -0.5596970000
H     -2.0943200000   -2.0934260000    0.4593770000
H      0.3670700000   -2.1402940000    0.2604290000
