49
[/Users/tanakahideya/2_Active_learning_241107/4_gen_xyz_sdf/gaussian_optimized_log/g_2109_11.log: Geometry 41]
C      1.8863480000    2.2518110000   -0.1630350000
C      2.9933010000    1.2057160000   -0.3224810000
C      4.3020820000    1.7705170000    0.2329330000
C      2.6810500000   -0.1310260000    0.3991350000
O      2.0854500000    0.1059620000    1.6528900000
C      1.8993890000   -1.1942540000   -0.4238400000
C      1.6150530000   -2.3941980000    0.4856100000
C      2.7351370000   -1.6603890000   -1.6187120000
C      0.5729620000   -0.6448830000   -0.9560400000
O     -0.2175530000   -0.1309780000    0.0939080000
Si    -1.8299410000   -0.4845410000    0.4449920000
C     -2.2332570000   -2.2244570000   -0.1351430000
C     -1.9489280000   -0.3556330000    2.3073480000
C     -2.9145990000    0.8025320000   -0.4268100000
C     -4.3904030000    0.3938340000   -0.3446810000
C     -2.4804430000    0.8934030000   -1.8957940000
C     -2.7137250000    2.1674570000    0.2444450000
H      2.1480920000    3.1636470000   -0.7192100000
H      1.7819510000    2.5222320000    0.8979910000
H      0.9057910000    1.9052140000   -0.5150270000
H      3.1323390000    1.0011640000   -1.3970020000
H      5.1506660000    1.1031080000    0.0220160000
H      4.2166130000    1.8771460000    1.3254240000
H      4.5290380000    2.7586890000   -0.1933060000
H      3.6527440000   -0.6059980000    0.6244820000
H      1.1493560000    0.2799100000    1.4764850000
H      2.5506200000   -2.7882240000    0.9100940000
H      1.1293510000   -3.2016950000   -0.0848760000
H      0.9675540000   -2.1083540000    1.3247300000
H      2.9217330000   -0.8532500000   -2.3414140000
H      2.2209620000   -2.4735680000   -2.1535240000
H      3.7084720000   -2.0467480000   -1.2808470000
H      0.0395890000   -1.4532090000   -1.4913840000
H      0.7679550000    0.1554960000   -1.6920940000
H     -2.2830150000   -2.3104930000   -1.2306460000
H     -1.4756870000   -2.9336240000    0.2315540000
H     -3.2083280000   -2.5361590000    0.2691140000
H     -1.5512690000    0.6089810000    2.6563280000
H     -1.3626220000   -1.1557250000    2.7835770000
H     -2.9891600000   -0.4415150000    2.6556110000
H     -4.7281670000    0.2815040000    0.6983810000
H     -5.0279860000    1.1618210000   -0.8151460000
H     -4.5796900000   -0.5575730000   -0.8659410000
H     -3.1087330000    1.6203970000   -2.4381830000
H     -2.5735770000   -0.0739240000   -2.4157780000
H     -1.4345280000    1.2268280000   -1.9823050000
H     -1.6512220000    2.4591660000    0.2569310000
H     -3.2692040000    2.9491360000   -0.3015040000
H     -3.0774250000    2.1667380000    1.2835940000
