22
[/Users/tanakahideya/2_Active_learning_241107/4_gen_xyz_sdf/gaussian_optimized_log/g_247_1.log: Geometry 12]
O      3.7080500000    0.7202650000   -0.2615750000
C      3.2420190000   -0.4565390000    0.3530710000
C      1.7446730000   -0.4191480000    0.6280650000
C      0.9209040000   -0.2007400000   -0.6445190000
C     -0.5533380000   -0.0666020000   -0.3603230000
C     -1.3703290000   -1.1987870000   -0.2611490000
C     -2.7233030000   -1.0810220000    0.0519420000
C     -3.2831490000    0.1769040000    0.2735700000
C     -2.4807390000    1.3130610000    0.1779160000
C     -1.1281900000    1.1893760000   -0.1363250000
H      3.5525790000    1.4547510000    0.3424320000
H      3.7906150000   -0.6682320000    1.2894800000
H      3.4707320000   -1.2760710000   -0.3453670000
H      1.5240700000    0.3912730000    1.3461960000
H      1.4363250000   -1.3548750000    1.1222800000
H      1.2967100000    0.7013940000   -1.1486730000
H      1.0942420000   -1.0438610000   -1.3326350000
H     -0.9375830000   -2.1868700000   -0.4382580000
H     -3.3448600000   -1.9754720000    0.1196160000
H     -4.3426370000    0.2714540000    0.5160460000
H     -2.9112680000    2.3019440000    0.3445040000
H     -0.5046130000    2.0834220000   -0.2165130000
