29
[/Users/tanakahideya/2_Active_learning_241107/4_gen_xyz_sdf/gaussian_optimized_log/g_257_2.log: Geometry 11]
C      0.0751860000    1.4446690000   -1.5324920000
C     -0.6478320000    0.5722570000   -0.5014540000
C     -1.9722570000    1.2674860000   -0.1719800000
C     -0.8146290000   -0.9085920000   -0.9316360000
C     -1.4235050000   -1.5610620000    0.3245900000
C     -0.7253000000   -0.7945750000    1.4817560000
C      0.2042740000    0.2019800000    0.7552230000
C      0.7112810000    1.3410880000    1.6158820000
C      1.3349520000   -0.6854470000    0.1608320000
O      2.4618500000    0.0208570000   -0.3081040000
C      0.6409720000   -1.3932910000   -1.0259630000
H      0.1691500000    2.4746360000   -1.1536120000
H      1.0833880000    1.0919560000   -1.7704710000
H     -0.5173590000    1.4919670000   -2.4597950000
H     -2.5906280000    0.7260820000    0.5548600000
H     -1.7862290000    2.2752140000    0.2305490000
H     -2.5668330000    1.3893030000   -1.0905990000
H     -1.3989100000   -1.0658170000   -1.8498620000
H     -1.2222600000   -2.6413370000    0.3512430000
H     -2.5143440000   -1.4367830000    0.3583860000
H     -0.1529900000   -1.4567070000    2.1487880000
H     -1.4498320000   -0.2589710000    2.1116160000
H      1.3638630000    2.0132380000    1.0384120000
H     -0.1223720000    1.9384910000    2.0145750000
H      1.2828240000    0.9600840000    2.4788560000
H      1.6586720000   -1.4123880000    0.9292420000
H      2.9224630000    0.3957470000    0.4502420000
H      1.1294770000   -1.0707500000   -1.9547430000
H      0.7182610000   -2.4879010000   -0.9714090000
