16
[/Users/tanakahideya/2_Active_learning_241107/4_gen_xyz_sdf/gaussian_optimized_log/g_3_1.log: Geometry 15]
O      2.6761380000   -0.5431880000   -0.0001060000
C      1.9043650000    0.6272060000    0.0000710000
C      0.4357490000    0.2779970000    0.0000300000
C      0.0126370000   -1.0509980000    0.0000420000
C     -1.3502650000   -1.3531710000    0.0000140000
C     -2.2984450000   -0.3329980000   -0.0000140000
C     -1.8784660000    0.9984250000   -0.0000310000
C     -0.5197330000    1.3001030000   -0.0000130000
H      3.6059870000   -0.2995490000   -0.0000300000
H      2.1148770000    1.2526880000   -0.8885770000
H      2.1148900000    1.2524320000    0.8888980000
H      0.7635350000   -1.8403210000    0.0000680000
H     -1.6717660000   -2.3961140000    0.0000190000
H     -3.3630520000   -0.5716190000   -0.0000360000
H     -2.6140150000    1.8045050000   -0.0000620000
H     -0.1946170000    2.3440920000   -0.0000270000
