31
[/Users/tanakahideya/2_Active_learning_241107/4_gen_xyz_sdf/gaussian_optimized_log/g_747_1.log: Geometry 10]
C     -3.0659300000   -0.5775350000   -0.9620700000
C     -2.1115310000    0.0256930000    0.0676000000
C     -2.1613100000   -0.7737680000    1.3704890000
C     -0.6909370000    0.1779540000   -0.5113750000
C      0.0850560000   -1.1473910000   -0.6799840000
C      1.0988250000   -1.3679780000    0.4440820000
C      2.1894800000   -0.2744290000    0.4463530000
C      3.4058190000   -0.6846500000   -0.3799480000
C      1.6126850000    1.0608430000   -0.0595120000
C      0.1332700000    1.2018110000    0.2780970000
O     -0.3744340000    2.4756330000   -0.0552710000
H     -4.0905550000   -0.6331530000   -0.5658000000
H     -3.0889070000    0.0238860000   -1.8824630000
H     -2.7629410000   -1.6009850000   -1.2353190000
H     -2.4521140000    1.0527530000    0.2805590000
H     -1.8577450000   -1.8205220000    1.2087690000
H     -1.5102870000   -0.3477790000    2.1483110000
H     -3.1853130000   -0.7887190000    1.7718840000
H     -0.8074540000    0.6434580000   -1.5046940000
H     -0.6145580000   -1.9951960000   -0.7351880000
H      0.6219810000   -1.1416390000   -1.6419960000
H      1.5691660000   -2.3591490000    0.3498570000
H      0.5680030000   -1.3693150000    1.4084110000
H      2.5199180000   -0.1302290000    1.4882610000
H      4.1488100000    0.1257380000   -0.4243170000
H      3.8945970000   -1.5745950000    0.0422480000
H      3.1081420000   -0.9200140000   -1.4144520000
H      1.7124750000    1.1320940000   -1.1567160000
H      2.1821600000    1.9058010000    0.3616300000
H      0.0046070000    1.0170430000    1.3642370000
H      0.0629250000    3.1321560000    0.4965550000
