29
[/Users/tanakahideya/2_Active_learning_241107/4_gen_xyz_sdf/gaussian_optimized_log/g_796_1.log: Geometry 12]
O     -2.5240890000   -1.6864600000   -0.5359930000
C     -1.3688000000   -1.1815490000    0.0967820000
C     -1.7174590000   -0.4038960000    1.3668050000
C     -2.5000320000    0.8687100000    1.0408110000
C     -1.7137450000    1.7542860000    0.0744310000
C     -1.3020470000    0.9827800000   -1.1852070000
C     -0.5411900000   -0.3186180000   -0.8871820000
C      0.8966220000   -0.1347910000   -0.4200140000
C      1.6684150000   -1.2705340000   -0.1277610000
C      2.9947290000   -1.1632690000    0.2806060000
C      3.5915350000    0.0915970000    0.4027310000
C      2.8486080000    1.2281290000    0.0979490000
C      1.5185600000    1.1145220000   -0.3110620000
H     -3.1298320000   -0.9557040000   -0.6977270000
H     -0.7864310000   -2.0716720000    0.3717550000
H     -0.7821960000   -0.1363390000    1.8858960000
H     -2.2934550000   -1.0595860000    2.0362110000
H     -3.4770820000    0.6047320000    0.5958740000
H     -2.7358510000    1.4187780000    1.9633510000
H     -2.3050610000    2.6385700000   -0.2075410000
H     -0.8201940000    2.1265910000    0.5994480000
H     -0.7170610000    1.6202760000   -1.8647060000
H     -2.2136850000    0.7177640000   -1.7482400000
H     -0.4988610000   -0.9068030000   -1.8188120000
H      1.2282790000   -2.2637280000   -0.2398600000
H      3.5680560000   -2.0660420000    0.4976940000
H      4.6303830000    0.1802440000    0.7236340000
H      3.3044760000    2.2166900000    0.1742990000
H      0.9700580000    2.0237130000   -0.5566730000
