3
     RDKit          3D

 16 16  0  0  0  0  0  0  0  0999 V2000
    2.6761   -0.5432   -0.0001 O   0  0  0  0  0  0  0  0  0  0  0  0
    1.9044    0.6272    0.0001 C   0  0  0  0  0  0  0  0  0  0  0  0
    0.4357    0.2780    0.0000 C   0  0  0  0  0  0  0  0  0  0  0  0
    0.0126   -1.0510    0.0000 C   0  0  0  0  0  0  0  0  0  0  0  0
   -1.3503   -1.3532    0.0000 C   0  0  0  0  0  0  0  0  0  0  0  0
   -2.2984   -0.3330   -0.0000 C   0  0  0  0  0  0  0  0  0  0  0  0
   -1.8785    0.9984   -0.0000 C   0  0  0  0  0  0  0  0  0  0  0  0
   -0.5197    1.3001   -0.0000 C   0  0  0  0  0  0  0  0  0  0  0  0
    3.6060   -0.2995   -0.0000 H   0  0  0  0  0  0  0  0  0  0  0  0
    2.1149    1.2527   -0.8886 H   0  0  0  0  0  0  0  0  0  0  0  0
    2.1149    1.2524    0.8889 H   0  0  0  0  0  0  0  0  0  0  0  0
    0.7635   -1.8403    0.0001 H   0  0  0  0  0  0  0  0  0  0  0  0
   -1.6718   -2.3961    0.0000 H   0  0  0  0  0  0  0  0  0  0  0  0
   -3.3631   -0.5716   -0.0000 H   0  0  0  0  0  0  0  0  0  0  0  0
   -2.6140    1.8045   -0.0001 H   0  0  0  0  0  0  0  0  0  0  0  0
   -0.1946    2.3441   -0.0000 H   0  0  0  0  0  0  0  0  0  0  0  0
  1  2  1  0
  2  3  1  0
  3  4  2  0
  4  5  1  0
  5  6  2  0
  6  7  1  0
  7  8  2  0
  8  3  1  0
  1  9  1  0
  2 10  1  0
  2 11  1  0
  4 12  1  0
  5 13  1  0
  6 14  1  0
  7 15  1  0
  8 16  1  0
M  END
$$$$
52
     RDKit          3D

 20 20  0  0  0  0  0  0  0  0999 V2000
   -3.6264    0.8446   -0.0003 O   0  0  0  0  0  0  0  0  0  0  0  0
   -3.3409   -0.5269    0.0003 C   0  0  0  0  0  0  0  0  0  0  0  0
   -1.8603   -0.7493    0.0001 C   0  0  0  0  0  0  0  0  0  0  0  0
   -0.9652    0.2428    0.0001 C   0  0  0  0  0  0  0  0  0  0  0  0
    0.5021    0.1054   -0.0000 C   0  0  0  0  0  0  0  0  0  0  0  0
    1.1585   -1.1362   -0.0001 C   0  0  0  0  0  0  0  0  0  0  0  0
    2.5471   -1.2092   -0.0001 C   0  0  0  0  0  0  0  0  0  0  0  0
    3.3159   -0.0432   -0.0000 C   0  0  0  0  0  0  0  0  0  0  0  0
    2.6799    1.1962    0.0001 C   0  0  0  0  0  0  0  0  0  0  0  0
    1.2882    1.2665    0.0001 C   0  0  0  0  0  0  0  0  0  0  0  0
   -4.5806    0.9612   -0.0005 H   0  0  0  0  0  0  0  0  0  0  0  0
   -3.7714   -1.0341    0.8870 H   0  0  0  0  0  0  0  0  0  0  0  0
   -3.7718   -1.0350   -0.8858 H   0  0  0  0  0  0  0  0  0  0  0  0
   -1.5461   -1.7975    0.0000 H   0  0  0  0  0  0  0  0  0  0  0  0
   -1.3516    1.2654    0.0000 H   0  0  0  0  0  0  0  0  0  0  0  0
    0.5765   -2.0591   -0.0002 H   0  0  0  0  0  0  0  0  0  0  0  0
    3.0364   -2.1846   -0.0002 H   0  0  0  0  0  0  0  0  0  0  0  0
    4.4052   -0.1035    0.0000 H   0  0  0  0  0  0  0  0  0  0  0  0
    3.2695    2.1144    0.0001 H   0  0  0  0  0  0  0  0  0  0  0  0
    0.7922    2.2394    0.0001 H   0  0  0  0  0  0  0  0  0  0  0  0
  1  2  1  0
  2  3  1  0
  3  4  2  0
  4  5  1  0
  5  6  2  0
  6  7  1  0
  7  8  2  0
  8  9  1  0
  9 10  2  0
 10  5  1  0
  1 11  1  0
  2 12  1  0
  2 13  1  0
  3 14  1  0
  4 15  1  0
  6 16  1  0
  7 17  1  0
  8 18  1  0
  9 19  1  0
 10 20  1  0
M  END
$$$$
247
     RDKit          3D

 22 22  0  0  0  0  0  0  0  0999 V2000
    3.7081    0.7203   -0.2616 O   0  0  0  0  0  0  0  0  0  0  0  0
    3.2420   -0.4565    0.3531 C   0  0  0  0  0  0  0  0  0  0  0  0
    1.7447   -0.4191    0.6281 C   0  0  0  0  0  0  0  0  0  0  0  0
    0.9209   -0.2007   -0.6445 C   0  0  0  0  0  0  0  0  0  0  0  0
   -0.5533   -0.0666   -0.3603 C   0  0  0  0  0  0  0  0  0  0  0  0
   -1.3703   -1.1988   -0.2611 C   0  0  0  0  0  0  0  0  0  0  0  0
   -2.7233   -1.0810    0.0519 C   0  0  0  0  0  0  0  0  0  0  0  0
   -3.2831    0.1769    0.2736 C   0  0  0  0  0  0  0  0  0  0  0  0
   -2.4807    1.3131    0.1779 C   0  0  0  0  0  0  0  0  0  0  0  0
   -1.1282    1.1894   -0.1363 C   0  0  0  0  0  0  0  0  0  0  0  0
    3.5526    1.4548    0.3424 H   0  0  0  0  0  0  0  0  0  0  0  0
    3.7906   -0.6682    1.2895 H   0  0  0  0  0  0  0  0  0  0  0  0
    3.4707   -1.2761   -0.3454 H   0  0  0  0  0  0  0  0  0  0  0  0
    1.5241    0.3913    1.3462 H   0  0  0  0  0  0  0  0  0  0  0  0
    1.4363   -1.3549    1.1223 H   0  0  0  0  0  0  0  0  0  0  0  0
    1.2967    0.7014   -1.1487 H   0  0  0  0  0  0  0  0  0  0  0  0
    1.0942   -1.0439   -1.3326 H   0  0  0  0  0  0  0  0  0  0  0  0
   -0.9376   -2.1869   -0.4383 H   0  0  0  0  0  0  0  0  0  0  0  0
   -3.3449   -1.9755    0.1196 H   0  0  0  0  0  0  0  0  0  0  0  0
   -4.3426    0.2715    0.5160 H   0  0  0  0  0  0  0  0  0  0  0  0
   -2.9113    2.3019    0.3445 H   0  0  0  0  0  0  0  0  0  0  0  0
   -0.5046    2.0834   -0.2165 H   0  0  0  0  0  0  0  0  0  0  0  0
  1  2  1  0
  2  3  1  0
  3  4  1  0
  4  5  1  0
  5  6  2  0
  6  7  1  0
  7  8  2  0
  8  9  1  0
  9 10  2  0
 10  5  1  0
  1 11  1  0
  2 12  1  0
  2 13  1  0
  3 14  1  0
  3 15  1  0
  4 16  1  0
  4 17  1  0
  6 18  1  0
  7 19  1  0
  8 20  1  0
  9 21  1  0
 10 22  1  0
M  END
$$$$
257
     RDKit          3D

 29 30  0  0  0  0  0  0  0  0999 V2000
    0.0752    1.4447   -1.5325 C   0  0  0  0  0  0  0  0  0  0  0  0
   -0.6478    0.5723   -0.5015 C   0  0  0  0  0  0  0  0  0  0  0  0
   -1.9723    1.2675   -0.1720 C   0  0  0  0  0  0  0  0  0  0  0  0
   -0.8146   -0.9086   -0.9316 C   0  0  2  0  0  0  0  0  0  0  0  0
   -1.4235   -1.5611    0.3246 C   0  0  0  0  0  0  0  0  0  0  0  0
   -0.7253   -0.7946    1.4818 C   0  0  0  0  0  0  0  0  0  0  0  0
    0.2043    0.2020    0.7552 C   0  0  2  0  0  0  0  0  0  0  0  0
    0.7113    1.3411    1.6159 C   0  0  0  0  0  0  0  0  0  0  0  0
    1.3350   -0.6854    0.1608 C   0  0  2  0  0  0  0  0  0  0  0  0
    2.4619    0.0209   -0.3081 O   0  0  0  0  0  0  0  0  0  0  0  0
    0.6410   -1.3933   -1.0260 C   0  0  0  0  0  0  0  0  0  0  0  0
    0.1691    2.4746   -1.1536 H   0  0  0  0  0  0  0  0  0  0  0  0
    1.0834    1.0920   -1.7705 H   0  0  0  0  0  0  0  0  0  0  0  0
   -0.5174    1.4920   -2.4598 H   0  0  0  0  0  0  0  0  0  0  0  0
   -2.5906    0.7261    0.5549 H   0  0  0  0  0  0  0  0  0  0  0  0
   -1.7862    2.2752    0.2305 H   0  0  0  0  0  0  0  0  0  0  0  0
   -2.5668    1.3893   -1.0906 H   0  0  0  0  0  0  0  0  0  0  0  0
   -1.3989   -1.0658   -1.8499 H   0  0  0  0  0  0  0  0  0  0  0  0
   -1.2223   -2.6413    0.3512 H   0  0  0  0  0  0  0  0  0  0  0  0
   -2.5143   -1.4368    0.3584 H   0  0  0  0  0  0  0  0  0  0  0  0
   -0.1530   -1.4567    2.1488 H   0  0  0  0  0  0  0  0  0  0  0  0
   -1.4498   -0.2590    2.1116 H   0  0  0  0  0  0  0  0  0  0  0  0
    1.3639    2.0132    1.0384 H   0  0  0  0  0  0  0  0  0  0  0  0
   -0.1224    1.9385    2.0146 H   0  0  0  0  0  0  0  0  0  0  0  0
    1.2828    0.9601    2.4789 H   0  0  0  0  0  0  0  0  0  0  0  0
    1.6587   -1.4124    0.9292 H   0  0  0  0  0  0  0  0  0  0  0  0
    2.9225    0.3957    0.4502 H   0  0  0  0  0  0  0  0  0  0  0  0
    1.1295   -1.0708   -1.9547 H   0  0  0  0  0  0  0  0  0  0  0  0
    0.7183   -2.4879   -0.9714 H   0  0  0  0  0  0  0  0  0  0  0  0
  1  2  1  0
  2  3  1  0
  2  4  1  0
  4  5  1  0
  5  6  1  0
  6  7  1  0
  7  8  1  1
  7  9  1  0
  9 10  1  0
  9 11  1  0
  7  2  1  0
 11  4  1  0
  1 12  1  0
  1 13  1  0
  1 14  1  0
  3 15  1  0
  3 16  1  0
  3 17  1  0
  4 18  1  6
  5 19  1  0
  5 20  1  0
  6 21  1  0
  6 22  1  0
  8 23  1  0
  8 24  1  0
  8 25  1  0
  9 26  1  1
 10 27  1  0
 11 28  1  0
 11 29  1  0
M  END
$$$$
321
     RDKit          3D

 19 19  0  0  0  0  0  0  0  0999 V2000
    2.2840   -0.6993    1.0251 C   0  0  0  0  0  0  0  0  0  0  0  0
    1.6607   -0.2801   -0.2985 C   0  0  2  0  0  0  0  0  0  0  0  0
    2.2860    0.9239   -0.6781 O   0  0  0  0  0  0  0  0  0  0  0  0
    0.1552   -0.1255   -0.1754 C   0  0  0  0  0  0  0  0  0  0  0  0
   -0.3978    1.1076    0.1820 C   0  0  0  0  0  0  0  0  0  0  0  0
   -1.7768    1.2439    0.3383 C   0  0  0  0  0  0  0  0  0  0  0  0
   -2.6164    0.1482    0.1417 C   0  0  0  0  0  0  0  0  0  0  0  0
   -2.0710   -1.0852   -0.2153 C   0  0  0  0  0  0  0  0  0  0  0  0
   -0.6930   -1.2186   -0.3747 C   0  0  0  0  0  0  0  0  0  0  0  0
    2.0749    0.0658    1.7861 H   0  0  0  0  0  0  0  0  0  0  0  0
    3.3722   -0.7943    0.9097 H   0  0  0  0  0  0  0  0  0  0  0  0
    1.8690   -1.6575    1.3648 H   0  0  0  0  0  0  0  0  0  0  0  0
    1.8602   -1.0725   -1.0462 H   0  0  0  0  0  0  0  0  0  0  0  0
    1.8821    1.2258   -1.4998 H   0  0  0  0  0  0  0  0  0  0  0  0
    0.2685    1.9589    0.3329 H   0  0  0  0  0  0  0  0  0  0  0  0
   -2.1984    2.2114    0.6159 H   0  0  0  0  0  0  0  0  0  0  0  0
   -3.6954    0.2554    0.2625 H   0  0  0  0  0  0  0  0  0  0  0  0
   -2.7230   -1.9452   -0.3766 H   0  0  0  0  0  0  0  0  0  0  0  0
   -0.2679   -2.1839   -0.6627 H   0  0  0  0  0  0  0  0  0  0  0  0
  1  2  1  0
  2  3  1  0
  2  4  1  0
  4  5  2  0
  5  6  1  0
  6  7  2  0
  7  8  1  0
  8  9  2  0
  9  4  1  0
  1 10  1  0
  1 11  1  0
  1 12  1  0
  2 13  1  6
  3 14  1  0
  5 15  1  0
  6 16  1  0
  7 17  1  0
  8 18  1  0
  9 19  1  0
M  END
$$$$
390
     RDKit          3D

 27 27  0  0  0  0  0  0  0  0999 V2000
    2.8605    1.7011    0.0137 C   0  0  0  0  0  0  0  0  0  0  0  0
    2.3458    0.2672    0.0098 C   0  0  0  0  0  0  0  0  0  0  0  0
    2.8256   -0.4787    1.2522 C   0  0  0  0  0  0  0  0  0  0  0  0
    2.7539   -0.4459   -1.2767 C   0  0  0  0  0  0  0  0  0  0  0  0
    0.9064    0.4329    0.0536 O   0  0  0  0  0  0  0  0  0  0  0  0
    0.0911   -0.6342    0.0746 C   0  0  0  0  0  0  0  0  0  0  0  0
    0.4275   -1.7948    0.0377 O   0  0  0  0  0  0  0  0  0  0  0  0
   -1.2023   -0.2276    0.1439 N   0  0  0  0  0  0  0  0  0  0  0  0
   -1.8239    1.0562   -0.1443 C   0  0  0  0  0  0  0  0  0  0  0  0
   -3.1447    0.2916   -0.4396 C   0  0  0  0  0  0  0  0  0  0  0  0
   -4.2499    0.6019    0.3421 O   0  0  0  0  0  0  0  0  0  0  0  0
   -2.3876   -1.0266   -0.1159 C   0  0  0  0  0  0  0  0  0  0  0  0
    3.9587    1.7092   -0.0172 H   0  0  0  0  0  0  0  0  0  0  0  0
    2.4774    2.2452   -0.8608 H   0  0  0  0  0  0  0  0  0  0  0  0
    2.5272    2.2219    0.9220 H   0  0  0  0  0  0  0  0  0  0  0  0
    2.4561   -1.5105    1.2555 H   0  0  0  0  0  0  0  0  0  0  0  0
    3.9247   -0.4903    1.2700 H   0  0  0  0  0  0  0  0  0  0  0  0
    2.4707    0.0345    2.1578 H   0  0  0  0  0  0  0  0  0  0  0  0
    2.3859   -1.4782   -1.2849 H   0  0  0  0  0  0  0  0  0  0  0  0
    2.3471    0.0893   -2.1472 H   0  0  0  0  0  0  0  0  0  0  0  0
    3.8502   -0.4541   -1.3586 H   0  0  0  0  0  0  0  0  0  0  0  0
   -1.8913    1.7345    0.7223 H   0  0  0  0  0  0  0  0  0  0  0  0
   -1.3700    1.5973   -0.9879 H   0  0  0  0  0  0  0  0  0  0  0  0
   -3.4652    0.3651   -1.4861 H   0  0  0  0  0  0  0  0  0  0  0  0
   -4.0013    0.5280    1.2712 H   0  0  0  0  0  0  0  0  0  0  0  0
   -2.7817   -1.5568    0.7669 H   0  0  0  0  0  0  0  0  0  0  0  0
   -2.2682   -1.7460   -0.9400 H   0  0  0  0  0  0  0  0  0  0  0  0
  1  2  1  0
  2  3  1  0
  2  4  1  0
  2  5  1  0
  5  6  1  0
  6  7  2  0
  6  8  1  0
  8  9  1  0
  9 10  1  0
 10 11  1  0
 10 12  1  0
 12  8  1  0
  1 13  1  0
  1 14  1  0
  1 15  1  0
  3 16  1  0
  3 17  1  0
  3 18  1  0
  4 19  1  0
  4 20  1  0
  4 21  1  0
  9 22  1  0
  9 23  1  0
 10 24  1  0
 11 25  1  0
 12 26  1  0
 12 27  1  0
M  END
$$$$
747
     RDKit          3D

 31 31  0  0  0  0  0  0  0  0999 V2000
   -3.0659   -0.5775   -0.9621 C   0  0  0  0  0  0  0  0  0  0  0  0
   -2.1115    0.0257    0.0676 C   0  0  0  0  0  0  0  0  0  0  0  0
   -2.1613   -0.7738    1.3705 C   0  0  0  0  0  0  0  0  0  0  0  0
   -0.6909    0.1780   -0.5114 C   0  0  2  0  0  0  0  0  0  0  0  0
    0.0851   -1.1474   -0.6800 C   0  0  0  0  0  0  0  0  0  0  0  0
    1.0988   -1.3680    0.4441 C   0  0  0  0  0  0  0  0  0  0  0  0
    2.1895   -0.2744    0.4464 C   0  0  1  0  0  0  0  0  0  0  0  0
    3.4058   -0.6846   -0.3799 C   0  0  0  0  0  0  0  0  0  0  0  0
    1.6127    1.0608   -0.0595 C   0  0  0  0  0  0  0  0  0  0  0  0
    0.1333    1.2018    0.2781 C   0  0  1  0  0  0  0  0  0  0  0  0
   -0.3744    2.4756   -0.0553 O   0  0  0  0  0  0  0  0  0  0  0  0
   -4.0906   -0.6332   -0.5658 H   0  0  0  0  0  0  0  0  0  0  0  0
   -3.0889    0.0239   -1.8825 H   0  0  0  0  0  0  0  0  0  0  0  0
   -2.7629   -1.6010   -1.2353 H   0  0  0  0  0  0  0  0  0  0  0  0
   -2.4521    1.0528    0.2806 H   0  0  0  0  0  0  0  0  0  0  0  0
   -1.8577   -1.8205    1.2088 H   0  0  0  0  0  0  0  0  0  0  0  0
   -1.5103   -0.3478    2.1483 H   0  0  0  0  0  0  0  0  0  0  0  0
   -3.1853   -0.7887    1.7719 H   0  0  0  0  0  0  0  0  0  0  0  0
   -0.8075    0.6435   -1.5047 H   0  0  0  0  0  0  0  0  0  0  0  0
   -0.6146   -1.9952   -0.7352 H   0  0  0  0  0  0  0  0  0  0  0  0
    0.6220   -1.1416   -1.6420 H   0  0  0  0  0  0  0  0  0  0  0  0
    1.5692   -2.3591    0.3499 H   0  0  0  0  0  0  0  0  0  0  0  0
    0.5680   -1.3693    1.4084 H   0  0  0  0  0  0  0  0  0  0  0  0
    2.5199   -0.1302    1.4883 H   0  0  0  0  0  0  0  0  0  0  0  0
    4.1488    0.1257   -0.4243 H   0  0  0  0  0  0  0  0  0  0  0  0
    3.8946   -1.5746    0.0422 H   0  0  0  0  0  0  0  0  0  0  0  0
    3.1081   -0.9200   -1.4145 H   0  0  0  0  0  0  0  0  0  0  0  0
    1.7125    1.1321   -1.1567 H   0  0  0  0  0  0  0  0  0  0  0  0
    2.1822    1.9058    0.3616 H   0  0  0  0  0  0  0  0  0  0  0  0
    0.0046    1.0170    1.3642 H   0  0  0  0  0  0  0  0  0  0  0  0
    0.0629    3.1322    0.4966 H   0  0  0  0  0  0  0  0  0  0  0  0
  1  2  1  0
  2  3  1  0
  2  4  1  0
  4  5  1  0
  5  6  1  0
  6  7  1  0
  7  8  1  0
  7  9  1  0
  9 10  1  0
 10 11  1  0
 10  4  1  0
  1 12  1  0
  1 13  1  0
  1 14  1  0
  2 15  1  0
  3 16  1  0
  3 17  1  0
  3 18  1  0
  4 19  1  6
  5 20  1  0
  5 21  1  0
  6 22  1  0
  6 23  1  0
  7 24  1  1
  8 25  1  0
  8 26  1  0
  8 27  1  0
  9 28  1  0
  9 29  1  0
 10 30  1  1
 11 31  1  0
M  END
$$$$
787
     RDKit          3D

 25 25  0  0  0  0  0  0  0  0999 V2000
   -3.5522   -0.7655   -0.2231 C   0  0  0  0  0  0  0  0  0  0  0  0
   -2.1294   -0.4261    0.1853 C   0  0  1  0  0  0  0  0  0  0  0  0
   -1.2933   -1.3190   -0.5168 O   0  0  0  0  0  0  0  0  0  0  0  0
   -1.7939    1.0377   -0.1202 C   0  0  0  0  0  0  0  0  0  0  0  0
   -0.5487    1.5768    0.5987 C   0  0  0  0  0  0  0  0  0  0  0  0
    0.7112    0.7936    0.3164 C   0  0  0  0  0  0  0  0  0  0  0  0
    1.3261    0.8644   -0.9412 C   0  0  0  0  0  0  0  0  0  0  0  0
    2.4535    0.1004   -1.2299 C   0  0  0  0  0  0  0  0  0  0  0  0
    2.9882   -0.7546   -0.2642 C   0  0  0  0  0  0  0  0  0  0  0  0
    2.3899   -0.8328    0.9913 C   0  0  0  0  0  0  0  0  0  0  0  0
    1.2609   -0.0623    1.2778 C   0  0  0  0  0  0  0  0  0  0  0  0
   -3.7458   -1.8311   -0.0438 H   0  0  0  0  0  0  0  0  0  0  0  0
   -4.2830   -0.1677    0.3385 H   0  0  0  0  0  0  0  0  0  0  0  0
   -3.6831   -0.5703   -1.2978 H   0  0  0  0  0  0  0  0  0  0  0  0
   -2.0289   -0.5850    1.2799 H   0  0  0  0  0  0  0  0  0  0  0  0
   -0.3823   -1.1927   -0.2298 H   0  0  0  0  0  0  0  0  0  0  0  0
   -2.6519    1.6703    0.1581 H   0  0  0  0  0  0  0  0  0  0  0  0
   -1.6726    1.1223   -1.2133 H   0  0  0  0  0  0  0  0  0  0  0  0
   -0.3952    2.6271    0.3057 H   0  0  0  0  0  0  0  0  0  0  0  0
   -0.7341    1.5763    1.6844 H   0  0  0  0  0  0  0  0  0  0  0  0
    0.9074    1.5253   -1.7042 H   0  0  0  0  0  0  0  0  0  0  0  0
    2.9173    0.1684   -2.2152 H   0  0  0  0  0  0  0  0  0  0  0  0
    3.8691   -1.3565   -0.4914 H   0  0  0  0  0  0  0  0  0  0  0  0
    2.8016   -1.4957    1.7539 H   0  0  0  0  0  0  0  0  0  0  0  0
    0.7947   -0.1276    2.2639 H   0  0  0  0  0  0  0  0  0  0  0  0
  1  2  1  0
  2  3  1  0
  2  4  1  0
  4  5  1  0
  5  6  1  0
  6  7  2  0
  7  8  1  0
  8  9  2  0
  9 10  1  0
 10 11  2  0
 11  6  1  0
  1 12  1  0
  1 13  1  0
  1 14  1  0
  2 15  1  1
  3 16  1  0
  4 17  1  0
  4 18  1  0
  5 19  1  0
  5 20  1  0
  7 21  1  0
  8 22  1  0
  9 23  1  0
 10 24  1  0
 11 25  1  0
M  END
$$$$
796
     RDKit          3D

 29 30  0  0  0  0  0  0  0  0999 V2000
   -2.5241   -1.6865   -0.5360 O   0  0  0  0  0  0  0  0  0  0  0  0
   -1.3688   -1.1815    0.0968 C   0  0  2  0  0  0  0  0  0  0  0  0
   -1.7175   -0.4039    1.3668 C   0  0  0  0  0  0  0  0  0  0  0  0
   -2.5000    0.8687    1.0408 C   0  0  0  0  0  0  0  0  0  0  0  0
   -1.7137    1.7543    0.0744 C   0  0  0  0  0  0  0  0  0  0  0  0
   -1.3020    0.9828   -1.1852 C   0  0  0  0  0  0  0  0  0  0  0  0
   -0.5412   -0.3186   -0.8872 C   0  0  1  0  0  0  0  0  0  0  0  0
    0.8966   -0.1348   -0.4200 C   0  0  0  0  0  0  0  0  0  0  0  0
    1.6684   -1.2705   -0.1278 C   0  0  0  0  0  0  0  0  0  0  0  0
    2.9947   -1.1633    0.2806 C   0  0  0  0  0  0  0  0  0  0  0  0
    3.5915    0.0916    0.4027 C   0  0  0  0  0  0  0  0  0  0  0  0
    2.8486    1.2281    0.0979 C   0  0  0  0  0  0  0  0  0  0  0  0
    1.5186    1.1145   -0.3111 C   0  0  0  0  0  0  0  0  0  0  0  0
   -3.1298   -0.9557   -0.6977 H   0  0  0  0  0  0  0  0  0  0  0  0
   -0.7864   -2.0717    0.3718 H   0  0  0  0  0  0  0  0  0  0  0  0
   -0.7822   -0.1363    1.8859 H   0  0  0  0  0  0  0  0  0  0  0  0
   -2.2935   -1.0596    2.0362 H   0  0  0  0  0  0  0  0  0  0  0  0
   -3.4771    0.6047    0.5959 H   0  0  0  0  0  0  0  0  0  0  0  0
   -2.7359    1.4188    1.9634 H   0  0  0  0  0  0  0  0  0  0  0  0
   -2.3051    2.6386   -0.2075 H   0  0  0  0  0  0  0  0  0  0  0  0
   -0.8202    2.1266    0.5994 H   0  0  0  0  0  0  0  0  0  0  0  0
   -0.7171    1.6203   -1.8647 H   0  0  0  0  0  0  0  0  0  0  0  0
   -2.2137    0.7178   -1.7482 H   0  0  0  0  0  0  0  0  0  0  0  0
   -0.4989   -0.9068   -1.8188 H   0  0  0  0  0  0  0  0  0  0  0  0
    1.2283   -2.2637   -0.2399 H   0  0  0  0  0  0  0  0  0  0  0  0
    3.5681   -2.0660    0.4977 H   0  0  0  0  0  0  0  0  0  0  0  0
    4.6304    0.1802    0.7236 H   0  0  0  0  0  0  0  0  0  0  0  0
    3.3045    2.2167    0.1743 H   0  0  0  0  0  0  0  0  0  0  0  0
    0.9701    2.0237   -0.5567 H   0  0  0  0  0  0  0  0  0  0  0  0
  1  2  1  0
  2  3  1  0
  3  4  1  0
  4  5  1  0
  5  6  1  0
  6  7  1  0
  7  8  1  0
  8  9  2  0
  9 10  1  0
 10 11  2  0
 11 12  1  0
 12 13  2  0
  7  2  1  0
 13  8  1  0
  1 14  1  0
  2 15  1  1
  3 16  1  0
  3 17  1  0
  4 18  1  0
  4 19  1  0
  5 20  1  0
  5 21  1  0
  6 22  1  0
  6 23  1  0
  7 24  1  6
  9 25  1  0
 10 26  1  0
 11 27  1  0
 12 28  1  0
 13 29  1  0
M  END
$$$$
1902
     RDKit          3D

 25 25  0  0  0  0  0  0  0  0999 V2000
    2.5466   -1.2393   -1.2788 C   0  0  0  0  0  0  0  0  0  0  0  0
    2.0926   -0.1043   -0.3529 C   0  0  0  0  0  0  0  0  0  0  0  0
    2.6916    1.2162   -0.8406 C   0  0  0  0  0  0  0  0  0  0  0  0
    2.6209   -0.3788    1.0711 C   0  0  0  0  0  0  0  0  0  0  0  0
    2.2467    0.6079    1.9899 O   0  0  0  0  0  0  0  0  0  0  0  0
    0.5642   -0.0515   -0.2788 C   0  0  0  0  0  0  0  0  0  0  0  0
   -0.1631    1.1247   -0.4962 C   0  0  0  0  0  0  0  0  0  0  0  0
   -1.5539    1.1559   -0.3841 C   0  0  0  0  0  0  0  0  0  0  0  0
   -2.2390   -0.0045   -0.0431 C   0  0  0  0  0  0  0  0  0  0  0  0
   -3.9702    0.0226    0.1007 Cl  0  0  0  0  0  0  0  0  0  0  0  0
   -1.5455   -1.1913    0.1892 C   0  0  0  0  0  0  0  0  0  0  0  0
   -0.1597   -1.2028    0.0719 C   0  0  0  0  0  0  0  0  0  0  0  0
    2.1780   -1.0743   -2.3015 H   0  0  0  0  0  0  0  0  0  0  0  0
    3.6457   -1.2829   -1.3127 H   0  0  0  0  0  0  0  0  0  0  0  0
    2.1831   -2.2204   -0.9417 H   0  0  0  0  0  0  0  0  0  0  0  0
    2.4861    2.0251   -0.1270 H   0  0  0  0  0  0  0  0  0  0  0  0
    2.3002    1.4964   -1.8295 H   0  0  0  0  0  0  0  0  0  0  0  0
    3.7833    1.1144   -0.9242 H   0  0  0  0  0  0  0  0  0  0  0  0
    2.2927   -1.3861    1.3941 H   0  0  0  0  0  0  0  0  0  0  0  0
    3.7219   -0.3894    1.0458 H   0  0  0  0  0  0  0  0  0  0  0  0
    1.2820    0.6321    2.0228 H   0  0  0  0  0  0  0  0  0  0  0  0
    0.3531    2.0465   -0.7626 H   0  0  0  0  0  0  0  0  0  0  0  0
   -2.1079    2.0781   -0.5597 H   0  0  0  0  0  0  0  0  0  0  0  0
   -2.0943   -2.0934    0.4594 H   0  0  0  0  0  0  0  0  0  0  0  0
    0.3671   -2.1403    0.2604 H   0  0  0  0  0  0  0  0  0  0  0  0
  1  2  1  0
  2  3  1  0
  2  4  1  0
  4  5  1  0
  2  6  1  0
  6  7  2  0
  7  8  1  0
  8  9  2  0
  9 10  1  0
  9 11  1  0
 11 12  2  0
 12  6  1  0
  1 13  1  0
  1 14  1  0
  1 15  1  0
  3 16  1  0
  3 17  1  0
  3 18  1  0
  4 19  1  0
  4 20  1  0
  5 21  1  0
  7 22  1  0
  8 23  1  0
 11 24  1  0
 12 25  1  0
M  END
$$$$
2090
     RDKit          3D

 34 35  0  0  0  0  0  0  0  0999 V2000
    0.1194    1.5347    0.8796 O   0  0  0  0  0  0  0  0  0  0  0  0
   -0.2505    0.4448    0.5040 C   0  0  0  0  0  0  0  0  0  0  0  0
    0.3927   -0.7004    0.8093 O   0  0  0  0  0  0  0  0  0  0  0  0
    1.6142   -0.5597    1.5367 C   0  0  0  0  0  0  0  0  0  0  0  0
    2.7827   -0.2892    0.6220 C   0  0  0  0  0  0  0  0  0  0  0  0
    3.1456    1.0222    0.2946 C   0  0  0  0  0  0  0  0  0  0  0  0
    4.2108    1.2595   -0.5726 C   0  0  0  0  0  0  0  0  0  0  0  0
    4.9205    0.1918   -1.1219 C   0  0  0  0  0  0  0  0  0  0  0  0
    4.5628   -1.1176   -0.8020 C   0  0  0  0  0  0  0  0  0  0  0  0
    3.4986   -1.3541    0.0662 C   0  0  0  0  0  0  0  0  0  0  0  0
   -1.3540    0.2206   -0.2606 N   0  0  0  0  0  0  0  0  0  0  0  0
   -2.2046    1.3379   -0.6299 C   0  0  0  0  0  0  0  0  0  0  0  0
   -3.6155    1.1349   -0.0808 C   0  0  0  0  0  0  0  0  0  0  0  0
   -4.1843   -0.2128   -0.5203 C   0  0  0  0  0  0  0  0  0  0  0  0
   -5.4345   -0.4804    0.0643 O   0  0  0  0  0  0  0  0  0  0  0  0
   -3.2395   -1.3368   -0.1216 C   0  0  0  0  0  0  0  0  0  0  0  0
   -1.8343   -1.0907   -0.6662 C   0  0  0  0  0  0  0  0  0  0  0  0
    1.7452   -1.5185    2.0531 H   0  0  0  0  0  0  0  0  0  0  0  0
    1.5018    0.2445    2.2746 H   0  0  0  0  0  0  0  0  0  0  0  0
    2.5708    1.8493    0.7144 H   0  0  0  0  0  0  0  0  0  0  0  0
    4.4887    2.2850   -0.8213 H   0  0  0  0  0  0  0  0  0  0  0  0
    5.7552    0.3802   -1.7991 H   0  0  0  0  0  0  0  0  0  0  0  0
    5.1166   -1.9562   -1.2270 H   0  0  0  0  0  0  0  0  0  0  0  0
    3.2198   -2.3796    0.3206 H   0  0  0  0  0  0  0  0  0  0  0  0
   -1.7478    2.2550   -0.2440 H   0  0  0  0  0  0  0  0  0  0  0  0
   -2.2395    1.4097   -1.7323 H   0  0  0  0  0  0  0  0  0  0  0  0
   -3.5943    1.1588    1.0204 H   0  0  0  0  0  0  0  0  0  0  0  0
   -4.2697    1.9541   -0.4223 H   0  0  0  0  0  0  0  0  0  0  0  0
   -4.2632   -0.2094   -1.6285 H   0  0  0  0  0  0  0  0  0  0  0  0
   -6.0378    0.2356   -0.1618 H   0  0  0  0  0  0  0  0  0  0  0  0
   -3.2103   -1.3860    0.9785 H   0  0  0  0  0  0  0  0  0  0  0  0
   -3.6348   -2.2950   -0.4888 H   0  0  0  0  0  0  0  0  0  0  0  0
   -1.8512   -1.1308   -1.7707 H   0  0  0  0  0  0  0  0  0  0  0  0
   -1.1325   -1.8523   -0.3166 H   0  0  0  0  0  0  0  0  0  0  0  0
  1  2  2  0
  2  3  1  0
  3  4  1  0
  4  5  1  0
  5  6  2  0
  6  7  1  0
  7  8  2  0
  8  9  1  0
  9 10  2  0
  2 11  1  0
 11 12  1  0
 12 13  1  0
 13 14  1  0
 14 15  1  0
 14 16  1  0
 16 17  1  0
 10  5  1  0
 17 11  1  0
  4 18  1  0
  4 19  1  0
  6 20  1  0
  7 21  1  0
  8 22  1  0
  9 23  1  0
 10 24  1  0
 12 25  1  0
 12 26  1  0
 13 27  1  0
 13 28  1  0
 14 29  1  0
 15 30  1  0
 16 31  1  0
 16 32  1  0
 17 33  1  0
 17 34  1  0
M  END
$$$$
2106
     RDKit          3D

 28 28  0  0  0  0  0  0  0  0999 V2000
   -1.6835   -0.5455    1.5386 C   0  0  0  0  0  0  0  0  0  0  0  0
   -1.8007    0.2845    0.2575 C   0  0  0  0  0  0  0  0  0  0  0  0
   -1.5342    1.7588    0.5679 C   0  0  0  0  0  0  0  0  0  0  0  0
   -3.2136    0.1365   -0.3201 C   0  0  0  0  0  0  0  0  0  0  0  0
   -0.8005   -0.2223   -0.8141 C   0  0  2  0  0  0  0  0  0  0  0  0
   -1.1373   -1.5624   -1.0952 O   0  0  0  0  0  0  0  0  0  0  0  0
    0.6600   -0.0957   -0.4208 C   0  0  0  0  0  0  0  0  0  0  0  0
    1.3050   -1.1395    0.2519 C   0  0  0  0  0  0  0  0  0  0  0  0
    2.6428   -1.0220    0.6270 C   0  0  0  0  0  0  0  0  0  0  0  0
    3.3545    0.1400    0.3316 C   0  0  0  0  0  0  0  0  0  0  0  0
    2.7231    1.1815   -0.3483 C   0  0  0  0  0  0  0  0  0  0  0  0
    1.3868    1.0600   -0.7249 C   0  0  0  0  0  0  0  0  0  0  0  0
   -2.4526   -0.2305    2.2598 H   0  0  0  0  0  0  0  0  0  0  0  0
   -0.7003   -0.4142    2.0142 H   0  0  0  0  0  0  0  0  0  0  0  0
   -1.8291   -1.6129    1.3210 H   0  0  0  0  0  0  0  0  0  0  0  0
   -0.5516    1.9056    1.0391 H   0  0  0  0  0  0  0  0  0  0  0  0
   -1.5758    2.3745   -0.3452 H   0  0  0  0  0  0  0  0  0  0  0  0
   -2.3017    2.1364    1.2600 H   0  0  0  0  0  0  0  0  0  0  0  0
   -3.9599    0.4981    0.4029 H   0  0  0  0  0  0  0  0  0  0  0  0
   -3.4286   -0.9135   -0.5559 H   0  0  0  0  0  0  0  0  0  0  0  0
   -3.3220    0.7256   -1.2444 H   0  0  0  0  0  0  0  0  0  0  0  0
   -0.9612    0.4115   -1.7098 H   0  0  0  0  0  0  0  0  0  0  0  0
   -0.5115   -1.8999   -1.7456 H   0  0  0  0  0  0  0  0  0  0  0  0
    0.7441   -2.0489    0.4741 H   0  0  0  0  0  0  0  0  0  0  0  0
    3.1328   -1.8436    1.1522 H   0  0  0  0  0  0  0  0  0  0  0  0
    4.4018    0.2313    0.6234 H   0  0  0  0  0  0  0  0  0  0  0  0
    3.2765    2.0893   -0.5939 H   0  0  0  0  0  0  0  0  0  0  0  0
    0.8982    1.8728   -1.2680 H   0  0  0  0  0  0  0  0  0  0  0  0
  1  2  1  0
  2  3  1  0
  2  4  1  0
  2  5  1  0
  5  6  1  0
  5  7  1  0
  7  8  2  0
  8  9  1  0
  9 10  2  0
 10 11  1  0
 11 12  2  0
 12  7  1  0
  1 13  1  0
  1 14  1  0
  1 15  1  0
  3 16  1  0
  3 17  1  0
  3 18  1  0
  4 19  1  0
  4 20  1  0
  4 21  1  0
  5 22  1  6
  6 23  1  0
  8 24  1  0
  9 25  1  0
 10 26  1  0
 11 27  1  0
 12 28  1  0
M  END
$$$$
2107
     RDKit          3D

 32 33  0  0  0  0  0  0  0  0999 V2000
   -0.6293   -2.1886   -0.0048 O   0  0  0  0  0  0  0  0  0  0  0  0
   -0.7428   -0.9996   -0.1430 C   0  0  0  0  0  0  0  0  0  0  0  0
    0.2944   -0.1782   -0.3546 O   0  0  0  0  0  0  0  0  0  0  0  0
    1.6010   -0.7670   -0.4067 C   0  0  2  0  0  0  0  0  0  0  0  0
    2.1156   -1.0409    1.0039 C   0  0  0  0  0  0  0  0  0  0  0  0
    2.2637    0.2542    1.8041 C   0  0  0  0  0  0  0  0  0  0  0  0
    3.1585    1.2566    1.0722 C   0  0  0  0  0  0  0  0  0  0  0  0
    2.6396    1.5312   -0.3424 C   0  0  0  0  0  0  0  0  0  0  0  0
    2.4883    0.2399   -1.1478 C   0  0  1  0  0  0  0  0  0  0  0  0
    3.7304   -0.3534   -1.4436 O   0  0  0  0  0  0  0  0  0  0  0  0
   -2.0475   -0.2721   -0.0948 C   0  0  0  0  0  0  0  0  0  0  0  0
   -2.1325    1.1129   -0.2661 C   0  0  0  0  0  0  0  0  0  0  0  0
   -3.3750    1.7400   -0.2098 C   0  0  0  0  0  0  0  0  0  0  0  0
   -4.5280    0.9874    0.0160 C   0  0  0  0  0  0  0  0  0  0  0  0
   -4.4424   -0.3954    0.1859 C   0  0  0  0  0  0  0  0  0  0  0  0
   -3.2029   -1.0259    0.1306 C   0  0  0  0  0  0  0  0  0  0  0  0
    1.5457   -1.7013   -0.9822 H   0  0  0  0  0  0  0  0  0  0  0  0
    1.4436   -1.7548    1.4998 H   0  0  0  0  0  0  0  0  0  0  0  0
    3.0923   -1.5451    0.9086 H   0  0  0  0  0  0  0  0  0  0  0  0
    1.2665    0.7012    1.9485 H   0  0  0  0  0  0  0  0  0  0  0  0
    2.6629    0.0374    2.8055 H   0  0  0  0  0  0  0  0  0  0  0  0
    3.2295    2.1982    1.6357 H   0  0  0  0  0  0  0  0  0  0  0  0
    4.1907    0.8616    1.0282 H   0  0  0  0  0  0  0  0  0  0  0  0
    3.3108    2.2111   -0.8874 H   0  0  0  0  0  0  0  0  0  0  0  0
    1.6542    2.0183   -0.2772 H   0  0  0  0  0  0  0  0  0  0  0  0
    2.0142    0.4597   -2.1159 H   0  0  0  0  0  0  0  0  0  0  0  0
    4.2695   -0.3544   -0.6454 H   0  0  0  0  0  0  0  0  0  0  0  0
   -1.2236    1.6873   -0.4437 H   0  0  0  0  0  0  0  0  0  0  0  0
   -3.4454    2.8203   -0.3433 H   0  0  0  0  0  0  0  0  0  0  0  0
   -5.4998    1.4817    0.0593 H   0  0  0  0  0  0  0  0  0  0  0  0
   -5.3452   -0.9818    0.3617 H   0  0  0  0  0  0  0  0  0  0  0  0
   -3.1031   -2.1044    0.2590 H   0  0  0  0  0  0  0  0  0  0  0  0
  1  2  2  0
  2  3  1  0
  3  4  1  0
  4  5  1  0
  5  6  1  0
  6  7  1  0
  7  8  1  0
  8  9  1  0
  9 10  1  0
  2 11  1  0
 11 12  2  0
 12 13  1  0
 13 14  2  0
 14 15  1  0
 15 16  2  0
  9  4  1  0
 16 11  1  0
  4 17  1  6
  5 18  1  0
  5 19  1  0
  6 20  1  0
  6 21  1  0
  7 22  1  0
  7 23  1  0
  8 24  1  0
  8 25  1  0
  9 26  1  6
 10 27  1  0
 12 28  1  0
 13 29  1  0
 14 30  1  0
 15 31  1  0
 16 32  1  0
M  END
$$$$
2108
     RDKit          3D

 38 40  0  0  0  0  0  0  0  0999 V2000
    4.2092   -0.4715   -0.8425 C   0  0  0  0  0  0  0  0  0  0  0  0
    2.8655   -0.6472   -0.1529 C   0  0  0  0  0  0  0  0  0  0  0  0
    2.5867   -2.0745    0.2752 C   0  0  0  0  0  0  0  0  0  0  0  0
    1.8180   -0.2290   -1.0123 O   0  0  0  0  0  0  0  0  0  0  0  0
    1.4178    1.0721   -0.6598 C   0  0  2  0  0  0  0  0  0  0  0  0
    1.7946    1.1750    0.8321 C   0  0  1  0  0  0  0  0  0  0  0  0
    0.6001    0.8457    1.7201 C   0  0  0  0  0  0  0  0  0  0  0  0
   -0.1516   -0.2079    1.1479 O   0  0  0  0  0  0  0  0  0  0  0  0
   -0.8155    0.1149   -0.0373 C   0  0  1  0  0  0  0  0  0  0  0  0
   -1.0853   -1.2024   -0.7934 C   0  0  0  0  0  0  0  0  0  0  0  0
   -2.4677   -1.1831   -1.0467 O   0  0  0  0  0  0  0  0  0  0  0  0
   -3.0606   -0.4061   -0.0348 C   0  0  0  0  0  0  0  0  0  0  0  0
   -3.2741   -1.2137    1.2397 C   0  0  0  0  0  0  0  0  0  0  0  0
   -4.3296    0.2122   -0.5733 C   0  0  0  0  0  0  0  0  0  0  0  0
   -2.1070    0.6283    0.2070 O   0  0  0  0  0  0  0  0  0  0  0  0
   -0.0806    1.1945   -0.8649 C   0  0  1  0  0  0  0  0  0  0  0  0
   -0.4392    2.4880   -0.4672 O   0  0  0  0  0  0  0  0  0  0  0  0
    2.8145    0.2113    0.9747 O   0  0  0  0  0  0  0  0  0  0  0  0
    4.2717   -1.1218   -1.7251 H   0  0  0  0  0  0  0  0  0  0  0  0
    5.0219   -0.7212   -0.1478 H   0  0  0  0  0  0  0  0  0  0  0  0
    4.3279    0.5742   -1.1586 H   0  0  0  0  0  0  0  0  0  0  0  0
    1.6209   -2.0945    0.7970 H   0  0  0  0  0  0  0  0  0  0  0  0
    2.5472   -2.7325   -0.6034 H   0  0  0  0  0  0  0  0  0  0  0  0
    3.3762   -2.4242    0.9533 H   0  0  0  0  0  0  0  0  0  0  0  0
    1.9389    1.8375   -1.2597 H   0  0  0  0  0  0  0  0  0  0  0  0
    2.1939    2.1664    1.0905 H   0  0  0  0  0  0  0  0  0  0  0  0
    0.9630    0.4844    2.6902 H   0  0  0  0  0  0  0  0  0  0  0  0
   -0.0281    1.7370    1.8666 H   0  0  0  0  0  0  0  0  0  0  0  0
   -0.7858   -2.0438   -0.1479 H   0  0  0  0  0  0  0  0  0  0  0  0
   -0.5375   -1.2632   -1.7410 H   0  0  0  0  0  0  0  0  0  0  0  0
   -3.9542   -2.0526    1.0406 H   0  0  0  0  0  0  0  0  0  0  0  0
   -2.3149   -1.5984    1.6106 H   0  0  0  0  0  0  0  0  0  0  0  0
   -3.7065   -0.5716    2.0184 H   0  0  0  0  0  0  0  0  0  0  0  0
   -4.7679    0.8878    0.1724 H   0  0  0  0  0  0  0  0  0  0  0  0
   -4.0943    0.7729   -1.4866 H   0  0  0  0  0  0  0  0  0  0  0  0
   -5.0528   -0.5779   -0.8131 H   0  0  0  0  0  0  0  0  0  0  0  0
   -0.3307    1.0198   -1.9275 H   0  0  0  0  0  0  0  0  0  0  0  0
   -1.3934    2.4665   -0.3064 H   0  0  0  0  0  0  0  0  0  0  0  0
  1  2  1  0
  2  3  1  0
  2  4  1  0
  4  5  1  0
  5  6  1  0
  6  7  1  0
  7  8  1  0
  9  8  1  1
  9 10  1  0
 10 11  1  0
 11 12  1  0
 12 13  1  0
 12 14  1  0
 12 15  1  0
  9 16  1  0
 16 17  1  0
  6 18  1  0
 18  2  1  0
 16  5  1  0
 15  9  1  0
  1 19  1  0
  1 20  1  0
  1 21  1  0
  3 22  1  0
  3 23  1  0
  3 24  1  0
  5 25  1  6
  6 26  1  1
  7 27  1  0
  7 28  1  0
 10 29  1  0
 10 30  1  0
 13 31  1  0
 13 32  1  0
 13 33  1  0
 14 34  1  0
 14 35  1  0
 14 36  1  0
 16 37  1  6
 17 38  1  0
M  END
$$$$
2109
     RDKit          3D

 49 48  0  0  0  0  0  0  0  0999 V2000
    1.8863    2.2518   -0.1630 C   0  0  0  0  0  0  0  0  0  0  0  0
    2.9933    1.2057   -0.3225 C   0  0  0  0  0  0  0  0  0  0  0  0
    4.3021    1.7705    0.2329 C   0  0  0  0  0  0  0  0  0  0  0  0
    2.6810   -0.1310    0.3991 C   0  0  1  0  0  0  0  0  0  0  0  0
    2.0854    0.1060    1.6529 O   0  0  0  0  0  0  0  0  0  0  0  0
    1.8994   -1.1943   -0.4238 C   0  0  0  0  0  0  0  0  0  0  0  0
    1.6151   -2.3942    0.4856 C   0  0  0  0  0  0  0  0  0  0  0  0
    2.7351   -1.6604   -1.6187 C   0  0  0  0  0  0  0  0  0  0  0  0
    0.5730   -0.6449   -0.9560 C   0  0  0  0  0  0  0  0  0  0  0  0
   -0.2176   -0.1310    0.0939 O   0  0  0  0  0  0  0  0  0  0  0  0
   -1.8299   -0.4845    0.4450 Si  0  0  0  0  0  4  0  0  0  0  0  0
   -2.2333   -2.2245   -0.1351 C   0  0  0  0  0  0  0  0  0  0  0  0
   -1.9489   -0.3556    2.3073 C   0  0  0  0  0  0  0  0  0  0  0  0
   -2.9146    0.8025   -0.4268 C   0  0  0  0  0  0  0  0  0  0  0  0
   -4.3904    0.3938   -0.3447 C   0  0  0  0  0  0  0  0  0  0  0  0
   -2.4804    0.8934   -1.8958 C   0  0  0  0  0  0  0  0  0  0  0  0
   -2.7137    2.1675    0.2444 C   0  0  0  0  0  0  0  0  0  0  0  0
    2.1481    3.1636   -0.7192 H   0  0  0  0  0  0  0  0  0  0  0  0
    1.7820    2.5222    0.8980 H   0  0  0  0  0  0  0  0  0  0  0  0
    0.9058    1.9052   -0.5150 H   0  0  0  0  0  0  0  0  0  0  0  0
    3.1323    1.0012   -1.3970 H   0  0  0  0  0  0  0  0  0  0  0  0
    5.1507    1.1031    0.0220 H   0  0  0  0  0  0  0  0  0  0  0  0
    4.2166    1.8771    1.3254 H   0  0  0  0  0  0  0  0  0  0  0  0
    4.5290    2.7587   -0.1933 H   0  0  0  0  0  0  0  0  0  0  0  0
    3.6527   -0.6060    0.6245 H   0  0  0  0  0  0  0  0  0  0  0  0
    1.1494    0.2799    1.4765 H   0  0  0  0  0  0  0  0  0  0  0  0
    2.5506   -2.7882    0.9101 H   0  0  0  0  0  0  0  0  0  0  0  0
    1.1294   -3.2017   -0.0849 H   0  0  0  0  0  0  0  0  0  0  0  0
    0.9676   -2.1084    1.3247 H   0  0  0  0  0  0  0  0  0  0  0  0
    2.9217   -0.8532   -2.3414 H   0  0  0  0  0  0  0  0  0  0  0  0
    2.2210   -2.4736   -2.1535 H   0  0  0  0  0  0  0  0  0  0  0  0
    3.7085   -2.0467   -1.2808 H   0  0  0  0  0  0  0  0  0  0  0  0
    0.0396   -1.4532   -1.4914 H   0  0  0  0  0  0  0  0  0  0  0  0
    0.7680    0.1555   -1.6921 H   0  0  0  0  0  0  0  0  0  0  0  0
   -2.2830   -2.3105   -1.2306 H   0  0  0  0  0  0  0  0  0  0  0  0
   -1.4757   -2.9336    0.2316 H   0  0  0  0  0  0  0  0  0  0  0  0
   -3.2083   -2.5362    0.2691 H   0  0  0  0  0  0  0  0  0  0  0  0
   -1.5513    0.6090    2.6563 H   0  0  0  0  0  0  0  0  0  0  0  0
   -1.3626   -1.1557    2.7836 H   0  0  0  0  0  0  0  0  0  0  0  0
   -2.9892   -0.4415    2.6556 H   0  0  0  0  0  0  0  0  0  0  0  0
   -4.7282    0.2815    0.6984 H   0  0  0  0  0  0  0  0  0  0  0  0
   -5.0280    1.1618   -0.8151 H   0  0  0  0  0  0  0  0  0  0  0  0
   -4.5797   -0.5576   -0.8659 H   0  0  0  0  0  0  0  0  0  0  0  0
   -3.1087    1.6204   -2.4382 H   0  0  0  0  0  0  0  0  0  0  0  0
   -2.5736   -0.0739   -2.4158 H   0  0  0  0  0  0  0  0  0  0  0  0
   -1.4345    1.2268   -1.9823 H   0  0  0  0  0  0  0  0  0  0  0  0
   -1.6512    2.4592    0.2569 H   0  0  0  0  0  0  0  0  0  0  0  0
   -3.2692    2.9491   -0.3015 H   0  0  0  0  0  0  0  0  0  0  0  0
   -3.0774    2.1667    1.2836 H   0  0  0  0  0  0  0  0  0  0  0  0
  1  2  1  0
  2  3  1  0
  2  4  1  0
  4  5  1  0
  4  6  1  0
  6  7  1  0
  6  8  1  0
  6  9  1  0
  9 10  1  0
 10 11  1  0
 11 12  1  0
 11 13  1  0
 11 14  1  0
 14 15  1  0
 14 16  1  0
 14 17  1  0
  1 18  1  0
  1 19  1  0
  1 20  1  0
  2 21  1  0
  3 22  1  0
  3 23  1  0
  3 24  1  0
  4 25  1  1
  5 26  1  0
  7 27  1  0
  7 28  1  0
  7 29  1  0
  8 30  1  0
  8 31  1  0
  8 32  1  0
  9 33  1  0
  9 34  1  0
 12 35  1  0
 12 36  1  0
 12 37  1  0
 13 38  1  0
 13 39  1  0
 13 40  1  0
 15 41  1  0
 15 42  1  0
 15 43  1  0
 16 44  1  0
 16 45  1  0
 16 46  1  0
 17 47  1  0
 17 48  1  0
 17 49  1  0
M  END
$$$$
2110
     RDKit          3D

 18 18  0  0  0  0  0  0  0  0999 V2000
   -2.2624    0.8943    0.8492 C   0  0  0  0  0  0  0  0  0  0  0  0
   -1.6539    0.1833   -0.3614 C   0  0  2  0  0  0  0  0  0  0  0  0
   -2.2020   -1.0906   -0.5149 O   0  0  0  0  0  0  0  0  0  0  0  0
   -0.1413    0.1049   -0.2126 C   0  0  0  0  0  0  0  0  0  0  0  0
    0.6831    1.2236   -0.3805 C   0  0  0  0  0  0  0  0  0  0  0  0
    2.0504    1.0793   -0.1814 C   0  0  0  0  0  0  0  0  0  0  0  0
    2.5523   -0.1720    0.1793 C   0  0  0  0  0  0  0  0  0  0  0  0
    1.6530   -1.2247    0.3192 C   0  0  0  0  0  0  0  0  0  0  0  0
    0.3411   -1.0868    0.1283 N   0  0  0  0  0  0  0  0  0  0  0  0
   -2.0103    0.3354    1.7623 H   0  0  0  0  0  0  0  0  0  0  0  0
   -3.3552    0.9167    0.7447 H   0  0  0  0  0  0  0  0  0  0  0  0
   -1.8897    1.9241    0.9494 H   0  0  0  0  0  0  0  0  0  0  0  0
   -1.8736    0.7741   -1.2688 H   0  0  0  0  0  0  0  0  0  0  0  0
   -1.5243   -1.7093   -0.1962 H   0  0  0  0  0  0  0  0  0  0  0  0
    0.2506    2.1832   -0.6695 H   0  0  0  0  0  0  0  0  0  0  0  0
    2.7215    1.9303   -0.3098 H   0  0  0  0  0  0  0  0  0  0  0  0
    3.6179   -0.3313    0.3435 H   0  0  0  0  0  0  0  0  0  0  0  0
    2.0037   -2.2232    0.5951 H   0  0  0  0  0  0  0  0  0  0  0  0
  1  2  1  0
  2  3  1  0
  2  4  1  0
  4  5  2  0
  5  6  1  0
  6  7  2  0
  7  8  1  0
  8  9  2  0
  9  4  1  0
  1 10  1  0
  1 11  1  0
  1 12  1  0
  2 13  1  6
  3 14  1  0
  5 15  1  0
  6 16  1  0
  7 17  1  0
  8 18  1  0
M  END
$$$$
